CH3O2Pt
APtclcactv05131915453D 0   0.00000     0.00000
 
  7  6  0  0  0  0  0  0  0  0999 V2000
    2.2152    1.1668    0.1668 O   0  0  0  0  0  0  0  0  0  0  0  0
    1.6190   -0.0000   -0.4035 C   0  0  0  0  0  0  0  0  0  0  0  0
   -0.4914   -0.0000    0.0069 Pt  0  4  0  0  0  0  0  0  0  0  0  0
    1.7795    0.0000   -1.4816 H   0  0  0  0  0  0  0  0  0  0  0  0
    2.2152   -1.1668    0.1668 O   0  0  0  0  0  0  0  0  0  0  0  0
    1.8581   -1.9979   -0.1748 H   0  0  0  0  0  0  0  0  0  0  0  0
    1.8581    1.9979   -0.1748 H   0  0  0  0  0  0  0  0  0  0  0  0
  1  2  1  0  0  0  0
  2  3  1  0  0  0  0
  2  4  1  0  0  0  0
  2  5  1  0  0  0  0
  5  6  1  0  0  0  0
  1  7  1  0  0  0  0
M  RAD  1   3   2
M  END
$$$$
